* Model file for CD4007_MOSFET_IC
 
.MODEL NMOS NMOS (LEVEL=1 
+CBD=0.01p CBS=0.01p CGDO=0.01p 
+CGSO=0.01p GAMMA=.7 Kn=0.000633541167
+TOX=0.9E-9 LAMBDA=0.006 PHI=.9 VTO=0.81016
+L=10E-6 W=10E-6) 
 
 
.MODEL PMOS PMOS (LEVEL=1 
+CBD=0.01p CBS=0.01p CGDO=0.01p 
+CGSO=0.01p +GAMMA=.45 TOX=0.9E-9 
+KP=80u LAMBDA=0.006 PHI=.8 VTO=-0.5
+L=10E-6 W=10E-6)
