Version 4
SHEET 1 880 680
WIRE 160 -32 112 -32
WIRE 256 -32 224 -32
WIRE 336 64 288 64
WIRE 432 64 416 64
WIRE 112 80 112 -32
WIRE 160 80 112 80
WIRE 256 80 256 -32
WIRE 256 80 240 80
WIRE 432 80 432 64
WIRE 288 144 288 64
WIRE 288 144 192 144
WIRE -16 160 -96 160
WIRE 112 160 112 80
WIRE 112 160 64 160
WIRE 160 160 112 160
WIRE 256 176 256 80
WIRE 256 176 224 176
WIRE 304 176 256 176
WIRE 464 176 384 176
WIRE 512 176 464 176
WIRE -96 192 -96 160
WIRE 160 192 112 192
WIRE 112 224 112 192
WIRE 464 224 464 176
WIRE 256 240 256 176
WIRE 272 240 256 240
WIRE -96 304 -96 272
WIRE 464 336 464 288
FLAG -96 304 0
FLAG 112 224 0
FLAG 464 336 0
FLAG 192 288 0
FLAG 432 80 0
FLAG 512 176 Vc
IOPIN 512 176 Out
FLAG 272 240 Vb
IOPIN 272 240 Out
SYMBOL res 80 144 R90
WINDOW 0 0 56 VBottom 2
WINDOW 3 32 56 VTop 1
SYMATTR InstName R6
SYMATTR Value 18800
SYMBOL voltage -96 176 R0
WINDOW 3 24 72 Left 2
WINDOW 123 24 44 Left 2
WINDOW 39 0 0 Left 0
SYMATTR Value SINE(0 1 2k)
SYMATTR Value2 AC 1
SYMATTR InstName Vin
SYMBOL res 256 64 R90
WINDOW 0 0 56 VBottom 2
WINDOW 3 32 56 VTop 1
SYMATTR InstName R7
SYMATTR Value 472256
SYMBOL cap 224 -48 R90
WINDOW 0 0 32 VBottom 2
WINDOW 3 32 32 VTop 2
SYMATTR InstName C2
SYMATTR Value 2n
SYMBOL res 400 160 R90
WINDOW 0 0 56 VBottom 2
WINDOW 3 32 56 VTop 1
SYMATTR InstName R8
SYMATTR Value 361075
SYMBOL cap 448 224 R0
SYMATTR InstName C3
SYMATTR Value 1n
SYMBOL voltage 320 64 R270
WINDOW 0 32 56 VTop 2
WINDOW 3 -32 56 VBottom 2
WINDOW 123 0 0 Left 0
WINDOW 39 0 0 Left 0
SYMATTR InstName V1
SYMATTR Value 15
SYMBOL voltage 192 304 R180
WINDOW 0 24 96 Left 2
WINDOW 3 24 16 Left 2
SYMATTR InstName V2
SYMATTR Value 15
SYMBOL OpAmps\\ADTL084 192 112 R0
SYMATTR InstName U1
TEXT 112 360 Left 2 !.tran 0 0.01 0 0.01u
TEXT 112 384 Left 2 ;.ac dec 100 1 10000
