Version 4
SHEET 1 880 680
WIRE 128 16 80 16
